/*--------------------------------*- C++ -*----------------------------------*\
  =========                 |
  \\      /  F ield         | OpenFOAM: The Open Source CFD Toolbox
   \\    /   O peration     | Website:  https://openfoam.org
    \\  /    A nd           | Version:  7
     \\/     M anipulation  |
\*---------------------------------------------------------------------------*/
FoamFile
{
    version     2.0;
    format      ascii;
    class       dictionary;
    object      topoSetDict;
}
// * * * * * * * * * * * * * * * * * * * * * * * * * * * * * * * * * * * * * //

actions
(
  {
      name    injectionWell;
      type    cellSet;
      action  new;
      source  boxToCell;
      sourceInfo
      {
          box (-1 -1 0) (.01 .01 1); // Edit box bounds as required
      }
  }

  {
      name    extractionWell;
      type    cellSet;
      action  new;
      source  boxToCell;
      sourceInfo
      {
          box (.99 .99 0) (2 2 1); // Edit box bounds as required
      }
  }

);

// ************************************************************************* //
