/*--------------------------------*- C++ -*----------------------------------*\
  =========                 |
  \\      /  F ield         | OpenFOAM: The Open Source CFD Toolbox
   \\    /   O peration     | Website:  https://openfoam.org
    \\  /    A nd           | Version:  8
     \\/     M anipulation  |
\*---------------------------------------------------------------------------*/
FoamFile
{
    version     2.0;
    format      ascii;
    class       volScalarField;
    location    "0";
    object      p;
}
// * * * * * * * * * * * * * * * * * * * * * * * * * * * * * * * * * * * * * //

dimensions      [1 -1 -2 0 0 0 0];

internalField   uniform 0;

boundaryField
{
    left
    {
        type            darcyFixedVelocity;
        velocity        1;
        value           uniform 0;
    }
    right
    {
        type            darcyFixedVelocity;
        velocity        0;
        value           uniform 0;
    }
    bottom
    {
        type            darcyFixedVelocity;
        velocity        0;
        value           uniform 0;
    }
    top
    {
        type            darcyFixedVelocity;
        velocity        0;
        value           uniform 0;
    }
    back
    {
        type            empty;
    }
    front
    {
        type            empty;
    }
}


// ************************************************************************* //
