/*--------------------------------*- C++ -*----------------------------------*\
  =========                 |
  \\      /  F ield         | OpenFOAM: The Open Source CFD Toolbox
   \\    /   O peration     | Website:  https://openfoam.org
    \\  /    A nd           | Version:  8
     \\/     M anipulation  |
\*---------------------------------------------------------------------------*/
FoamFile
{
    version     2.0;
    format      binary;
    class       polyBoundaryMesh;
    location    "constant/polyMesh";
    object      boundary;
}
// * * * * * * * * * * * * * * * * * * * * * * * * * * * * * * * * * * * * * //

6
(
    left
    {
        type            patch;
        nFaces          512;
        startFace       1047040;
    }
    right
    {
        type            patch;
        nFaces          512;
        startFace       1047552;
    }
    bottom
    {
        type            patch;
        nFaces          1024;
        startFace       1048064;
    }
    top
    {
        type            patch;
        nFaces          1024;
        startFace       1049088;
    }
    back
    {
        type            empty;
        inGroups        List<word> 1(empty);
        nFaces          524288;
        startFace       1050112;
    }
    front
    {
        type            empty;
        inGroups        List<word> 1(empty);
        nFaces          524288;
        startFace       1574400;
    }
)

// ************************************************************************* //
