/*--------------------------------*- C++ -*----------------------------------*\
| =========                 |                                                 |
| \\      /  F ield         | foam-extend: Open Source CFD                    |
|  \\    /   O peration     | Version:     4.0                                |
|   \\  /    A nd           | Web:         http://www.foam-extend.org         |
|    \\/     M anipulation  |                                                 |
\*---------------------------------------------------------------------------*/
FoamFile
{
    version     2.0;
    format      ascii;
    class       volScalarField;
    object      p;
}
// * * * * * * * * * * * * * * * * * * * * * * * * * * * * * * * * * * * * * //

dimensions      [1 -1 -2 0 0 0 0];

internalField   uniform 0.0;

boundaryField
{
    left
    {
        type            darcyFixedVelocity;
        velocity        6.6e-5;
        value           uniform  0;
    }

    right
    {
        type            codedFixedValue;
        value           $internalField;
    
        // Name of generated boundary condition
        redirectType  right;
        name right;
    
        code
        #{
            
            scalarField myPatch(this->patch().size());
            forAll(this->patch().Cf(),i)
            {
              myPatch[i]= 1024.99*9.8*(1. - this->patch().Cf()[i].z());
            }
            operator==(myPatch);
        #};

        codeOptions
        #{
            -I$(LIB_SRC)/finiteVolume/lnInclude
        #};

        codeInclude
        #{
            #include "uniformDimensionedFields.H"
        #};

    }

    top
    {
        type            darcyFixedVelocity;
        velocity        0;
        value           uniform 0;
    }

    bottom
    {
        type            darcyFixedVelocity;
        velocity        0;
        value           uniform 0;
    }

    front
    {
        type            darcyFixedVelocity;
        velocity        0;
        value           uniform 0;
    }

    back
    {
        type            darcyFixedVelocity;
        velocity        0;
        value           uniform 0;
    }
}


// ************************************************************************* //
